test/test_files/validation_tests/case6468rte.m
function mpc = case6468rte
%CASE6468RTE  AC Power flow data for French system.
%   Please see CASEFORMAT for details on the case file format.
%
%   This case accurately represents the size and complexity of French
%   very high voltage and high voltage transmission network.
%   These data are snapshots of French VHV+HV grid in 2013.
%   These data can be used to validate mathematical methods and tools.
%   These data should NOT be used for operation
%   nor planning of the French or European grids.
%
%   When publishing results based on this data, please cite:
%
%     C. Josz, S. Fliscounakis, J. Maeght, and P. Panciatici, "AC Power Flow
%     Data in MATPOWER and QCQP Format: iTesla, RTE Snapshots, and PEGASE"
%     http://arxiv.org/abs/1603.01533
%
%   Contacts:
%     Cédric Josz, Stéphane Fliscounakis, Jean Maeght, Patrick Panciatici
%     firstname.lastname@rte-france.com
%     Réseau de Transport d'Electricité (French Transmission System Operator)
%     Département Expertise Système, Immeuble "Le Colbert"
%     9 rue de la Porte de Buc, 78000 Versailles Cedex, France
%
%   March 3rd, 2016

%   MATPOWER
%   Copyright (c) 2016 by Cédric Josz, Stéphane Fliscounakis, Jean Maeght,
%   and Patrick Panciatici
%   Licensed under the Creative Commons Attribution 4.0 International license,
%   http://creativecommons.org/licenses/by/4.0/

%% MATPOWER Case Format : Version 2
mpc.version = '2';

%%-----  Power Flow Data  -----%%
%% system MVA base
mpc.baseMVA = 100;

%% bus data
%    bus_i    type    Pd    Qd    Gs    Bs    area    Vm    Va    baseKV    zone    Vmax    Vmin
mpc.bus = [
    1    1    0    0    0    0    1    0.982360162    -16.9924109    45    1    1    0.888889;
    2    1    0    0    0    0    1    1.03357339    -12.617296    63    1    1.06349    0.936508;
    3    1    11.7    -1.2    0    0    1    0.982847442    -9.54178066    63    1    1.07937    0.952381;
    4    1    33.8    -8.2    0    0    1    1.06611868    -3.90213962    90    1    1.08889    0.933333;
    5    1    11    -0.9    0    0    1    0.982872119    -29.8927969    63    1    1.06349    0.952381;
    6    1    13    4.3    0    0    1    1.03222939    -15.5443256    63    1    1.07937    0.920635;
    7    1    1    -0.2    0    0    1    1.05987038    -17.5729894    63    1    1.07937    0.920635;
    8    1    0.4    -4.4    0    0    1    1.06971348    -0.192853327    225    1    1.08889    0.888889;
    9    1    16.9    0    0    0    1    1.03236682    -21.5130541    63    1    1.06349    0.936508;
    10    1    0    0    0    0    1    1.06578606    -3.53511699    90    1    1.07778    0.922222;
    11    1    20    -3.1    0    0    1    1.06578583    -3.53511451    90    1    1.07778    0.922222;
    12    1    0    0    0    0    1    0.991391885    3.70767097    63    1    1.07937    0.952381;
    13    1    0    0    0    0    1    1.05441489    -2.34943162    380    1    1.10263    1.05084;
    14    1    37    3.6    0    0    1    1.04768724    -8.23393216    90    1    1.07778    0.977778;
    15    1    0    0    0    0    1    1.02545063    -21.0643444    63    1    1.07937    0.920635;
    16    1    10.3    1.5    0    0    1    1.04945776    -23.5577781    63    1    1.07937    0.920635;
    17    1    11.2    -0.6    0    0    1    1.04996416    -15.5847968    90    1    1.06667    0.977778;
    18    1    0    0    0    0    1    0.921553843    -10.990672    45    1    1    0.888889;
    19    1    1    0    0    0    1    1.02569452    -12.7430969    63    1    1.06349    0.936508;
    20    1    2.3    -18.3    0    0    1    0.922386141    -11.0219232    45    1    1    0.888889;
    21    1    6.5    -1.9    0    0    1    1.04121459    -9.90179602    90    1    1.06667    0.977778;
    22    1    15.2    1.4    0    0    1    1.0019562    -4.57036053    63    1    1.07937    0.952381;
    23    1    29.1    4.6    0    0    1    1.006657    -17.7208694    63    1    1.06349    0.936508;
    24    1    9.7    -2.8    0    0    1    1.06346895    -2.60211418    90    1    1.11111    0.955556;
    25    1    46.5    -6.1    0    0    1    1.09135684    -0.999788965    90    1    1.1    0.944444;
    26    1    20.5    4.7    0    0    1    1.02477314    -7.88570753    90    1    1.06667    0.977778;
    27    1    0    0    0    0    1    1.06682063    -4.11970324    225    1    1.08444    1.00444;
    28    1    0.4    0.9    0    0    1    1.02834601    -13.3067586    63    1    1.07937    0.952381;
    29    1    52.7    1.8    0    0    1    1.01167743    -22.7325495    63    1    1.06349    0.968254;
    30    1    29.8    -1.9    0    0    1    1.06365968    -3.58628596    90    1    1.08889    0.933333;
    31    1    0    0    0    0    1    1.02844026    -14.5718586    63    1    1.06349    0.936508;
    32    1    0    0    0    0    1    1.02538048    -9.48891608    150    1    1.10667    0.9;
    33    1    0    0    0    0    1    1.03986876    -11.0997968    225    1    1.08889    0.933333;
    34    1    0    0    0    0    1    1.03410534    -11.3247484    225    1    1.08889    0.933333;
    35    1    0    0    0    0    1    1.05454522    -7.73479801    380    1    1.10526    1.03947;
    36    1    0    0    0    0    1    1.05846774    -6.42917153    380    1    1.10526    1.03947;
    37    1    2.3    4.4    0    0    1    1.02738953    -17.2538295    63    1    1.07937    0.920635;
    38    1    7    -1    0    0    1    1.06103227    -3.84377259    63    1    1.09524    0.936508;
    39    1    35    -6.8    0    0    1    1.01594027    -16.3550041    90    1    1.07778    0.977778;
    40    1    31.7    0.5    0    0    1    1.04084684    -6.8391508    90    1    1.07778    0.977778;
    41    1    0    0    0    0    1    1.08069851    -5.41204185    225    1    1.09194    1.00444;
    42    1    0    0    0    0    1    1.0954297    7.87766165    63    1    1.13061    0.952381;
    43    1    3.4    2.8    0    0    1    1.05270633    -4.48993014    90    1    1.07778    0.977778;
    44    1    12.4    0    0    0    1    1.00594056    -29.8194874    63    1    1.06349    0.952381;
    45    1    3    2.1    0    0    1    1.01692589    -12.634151    90    1    1.06667    0.977778;
    46    1    0    0    0    0    1    1.0100273    -14.4804058    63    1    1.06349    0.936508;
    47    2    0    0    0    0    1    1.00922109    -14.4711651    63    1    1.06349    0.936508;
    48    1    34    1.3    0    0    1    1.04957921    -3.90252054    90    1    1.07778    0.922222;
    49    1    6.9    -2.5    0    0    1    1.03425801    -10.8024259    63    1    1.06349    0.936508;
    50    1    0    0    0    0    1    1.06027786    -16.7284562    63    1    1.07436    0.936508;
    51    1    0    0    0    0    1    1.04603188    -12.4126923    225    1    1.08889    0.933333;
    52    1    5.8    2.5    0    0    1    1.02216407    -14.3622214    90    1    1.06667    0.977778;
    53    1    0.2    -0.3    0    0    1    1.02177243    -5.58788327    63    1    1.04762    0.952381;
    54    1    0.9    -0.8    0    0    1    1.04651469    -5.31264567    90    1    1.06667    0.977778;
    55    1    30.1    5.4    0    0    1    1.06911736    -5.9911251    225    1    1.08889    1.00444;
    56    1    42.2    6.3    0    0    1    1.05123653    -4.76670164    225    1    1.08889    1.00444;
    57    2    0    0    0    0    1    1.059    -18.944119    63    1    1.07937    0.920635;
    58    1    107.6    28.8    0    0    1    1.06892859    -6.00264999    225    1    1.08889    1.00444;
    59    1    5.2    1.4    0    0    1    0.989827684    -7.3343638    63    1    1.07937    0.952381;
    60    1    0    0    0    0    1    0.998943276    -1.88690126    63    1    1.07937    0.952381;
    61    1    29.6    5.1    0    0    1    0.997465924    -3.77602254    63    1    1.07937    0.952381;
    62    1    0    0    0    0    1    0.999694905    -1.60172008    63    1    1.07937    0.952381;
    63    1    12.8    2    0    0    1    0.993826428    4.48500229    63    1    1.07937    0.952381;
    64    1    47.2    -0.7    0    0    1    1.0705947    1.91724809    225    1    1.08889    0.888889;
    65    1    10    2.9    0    0    1    1.006946    -4.21144264    63    1    1.07937    0.952381;
    66    1    11.1    -9.3    0    0    1    1.04900055    -17.2658053    63    1    1.06349    0.936508;
    67    1    0    0    0    0    1    1.03746815    -8.39981192    63    1    1.07937    0.920635;
    68    1    41.1    -6.8    0    0    1    1.01935997    -13.3684514    63    1    1.06349    0.936508;
    69    1    14.4    -3.2    0    0    1    1.01147201    -33.7215654    63    1    1.06349    0.952381;
    70    1    8.7    0.6    0    0    1    1.00572368    3.9676521    63    1    1.07937    0.952381;
    71    1    55.8    10.7    0    0    1    1.0267104    -6.41569883    63    1    1.04762    0.952381;
    72    1    0    0    0    0    1    1.08655561    0.711980463    225    1    1.08889    1.00444;
    73    1    0    0    0    0    1    1.08655583    0.712358881    225    1    1.08889    1.00444;
    74    1    37.1    -8.7    0    0    1    1.07105686    1.98697526    225    1    1.08889    0.888889;
    75    1    19.3    1.4    0    0    1    1.05921685    -4.29954748    90    1    1.06825    0.977778;
    76    1    6.3    3.2    0    0    1    1.05309569    7.25307841    225    1    1.08889    0.986667;
    77    1    28.9    -5.2    0    0    1    1.03928192    -11.930061    63    1    1.06349    0.936508;
    78    1    0    0    0    0    1    1.05538569    -21.1340497    63    1    1.07937    0.920635;
    79    1    0    0    0    0    1    1.02849409    -3.9338557    63    1    1.04762    0.952381;
    80    1    26.1    -1    0    0    1    1.07157163    -3.87891065    225    1    1.08889    1.00444;
    81    1    26.1    3.5    0    0    1    1.0715771    -3.87858057    225    1    1.08889    1.00444;
    82    1    9.8    -3.2    0    0    1    1.02853529    -11.2656474    63    1    1.06349    0.936508;
    83    1    85    46.2    0    0    1    1.0638075    -5.21546206    225    1    1.08889    1.00444;
    84    1    -1    -1.1    0    0    1    0.999291489    -11.8369094    63    1    1.06349    0.936508;
    85    1    2.3    -0.8    0    0    1    1.04254625    -13.6881562    63    1    1.06349    0.936508;
    86    1    30.3    -3.7    0    0    1    1.01684367    -21.5723849    90    1    1.06667    0.977778;
    87    1    0    0    0    0    1    1.00372387    4.29044423    63    1    1.07937    0.952381;
    88    1    11.5    -3.8    0    0    1    1.03334335    -12.8162347    63    1    1.06349    0.936508;
    89    1    17.7    -4.9    0    0    1    1.05584519    -6.77733659    90    1    1.07778    0.977778;
    90    1    0.7    -0.3    0    0    1    0.921441645    -11.9295133    45    1    1    0.888889;
    91    1    0    0    0    0    1    0.921553843    -10.990672    45    1    1    0.888889;
    92    1    24.7    0.4    0    0    1    1.03495227    -15.8031488    63    1    1.06349    0.968254;
    93    1    2.3    -2.5    0    0    1    0.95187302    -14.3401651    45    1    1    0.888889;
    94    1    13    -4.9    0    0    1    1.05414079    -6.74640487    90    1    1.06667    0.977778;
    95    1    38    3.8    0    0    1    1.02303942    -13.8381791    90    1    1.06667    0.977778;
    96    1    0.9    -0.6    0    0    1    1.0260599    -12.6435397    63    1    1.06349    0.936508;
    97    1    47    0.8    0    0    1    1.04296421    -20.2136851    63    1    1.07937    0.920635;
    98    1    6.6    -2.2    0    0    1    1.03653772    -7.55520074    63    1    1.07937    0.952381;
    99    1    21.9    3.2    0    0    1    0.999827178    -3.33128656    63    1    1.07937    0.952381;
    100    1    46.3    7.4    0    0    1    1.01522499    -17.010418    63    1    1.06349    0.936508;
    101    1    14    -1.5    0    0    1    0.999154657    -12.3028501    63    1    1.06349    0.936508;
    102    2    0    0    0    0    1    1.02    -18.6238254    63    1    1.07937    0.952381;
    103    1    13.2    -4    0    0    1    1.0079984    -1.94551408    63    1    1.07937    0.952381;
    104    1    0    0    0    0    1    1.04193665    0.580020317    225    1    1.08889    0.986667;
    105    1    28.5    -1.6    0    0    1    1.06969934    1.26852595    225    1    1.08889    0.888889;
    106    1    38.8    2.2    0    0    1    1.07961207    -2.19413024    90    1    1.1    0.944444;
    107    1    71.6    4.9    0    0    1    1.06152701    -23.4875083    225    1    1.08444    1.00889;
    108    1    7.9    -4.6    0    0    1    1.06751598    -2.51173574    90    1    1.07778    0.977778;
    109    1    60.6    7.8    0    0    1    1.0369229    -12.9079997    63    1    1.06349    0.936508;
    110    1    0    0    0    0    1    1.02640258    -9.24746227    225    1    1.08889    0.933333;
    111    1    34.2    -7.2    0    0    1    1.00939675    -21.031705    63    1    1.06349    0.968254;
    112    1    0    0    0    0    1    1.03129628    -6.97598986    63    1    1.04762    0.952381;
    113    1    0    0    0    0    1    1.06926066    -4.61981303    225    1    1.08889    1.00444;
    114    1    11.5    -1    0    0    1    1.04825819    -17.1565156    63    1    1.06349    0.936508;
    115    1    0    0    0    0    1    1.05442402    -2.349515    380    1    1.10526    1.05085;
    116    1    0    0    0    0    1    1.05442402    -2.349515    380    1    1.10526    1.05085;
    117    1    13.2    -2.2    0    0    1    1.0165245    -13.6614269    63    1    1.07937    0.952381;
    118    1    2    0.8    0    0    1    1.06107447    -4.06873544    90    1    1.07012    0.977778;
    119    1    35.5    0.7    0    0    1    1.03096497    -6.36943972    63    1    1.06349    0.936508;
    120    1    29.9    -1.3    0    0    1    1.01836144    -17.0457144    63    1    1.06349    0.936508;
    121    1    15.3    3.7    0    0    1    1.0420724    -13.3689812    63    1    1.07937    0.920635;
    122    2    0    0    0    0    1    1.01023281    -2.94306456    63    1    1.07937    0.952381;
    123    1    9    2.7    0    0    1    1.00909715    -3.01405303    63    1    1.07937    0.952381;
    124    1    8.9    -4    0    0    1    1.04750139    -11.6708111    90    1    1.06667    0.977778;
    125    1    4.8    -3.1    0    0    1    1.02525611    -2.72388791    63    1    1.07937    0.952381;
    126    1    -0.3    0.5    0    0    1    1.04300004    -13.5118523    63    1    1.06349    0.936508;
    127    1    6.5    0.4    0    0    1    1.03153449    -8.41516178    63    1    1.04762    0.952381;
    128    1    13.9    5.6    0    0    1    1.02280368    -10.3503702    63    1    1.06349    0.968254;
    129    1    18.8    14.3    0    0    1    1.02022374    -9.12770779    63    1    1.06349    0.968254;
    130    1    0    0    0    0    1    1.04955399    -7.73172169    225    1    1.08444    1.00889;
    131    1    82    2    0    0    1    1.04615594    -17.1645875    225    1    1.08444    1.00889;
    132    2    11.9    0    0    0    1    1.0463591    -16.5763476    90    1    1.07778    0.922222;
    133    1    1.3    0.3    0    0    1    1.01965411    -7.00251139    63    1    1.04762    0.952381;
    134    1    71.7    15.7    0    0    1    1.06193957    -4.86747467    225    1    1.08889    1.00444;
    135    1    0    0    0    0    1    1.06927351    -5.87646291    225    1    1.08889    1.00444;
    136    1    18.8    2.3    0    0    1    1.02710605    -14.2466947    90    1    1.07778    0.977778;
    137    2    13.4    -9.1    0    0    1    1.0143739    -23.4864219    63    1    1.06349    0.968254;
    138    1    0    0    0    0    1    1.00897643    -19.9217542    150    1    1.08    0.966667;
    139    1    8.6    -1    0    0    1    1.03847794    -16.1632784    63    1    1.07937    0.920635;
    140    1    0    0    0    0    1    1.06127289    -13.4702234    225    1    1.08889    1;
    141    1    0    0    0    0    1    1.06994676    -10.7650465    380    1    1.10526    1.05263;
    142    1    15.8    1.3    0    0    1    0.993257128    -6.98517771    63    1    1.07937    0.952381;
    143    1    0    0    0    0    1    1.0334828    -3.41755922    225    1    1.08889    0.986667;
    144    1    0    0    0    -64    1    1.06620776    1.536916    20    1    1.15    0.8;
    145    1    21.2    10    0    0    1    1.06705043    -1.5239046    90    1    1.11111    0.955556;
    146    1    25.6    6.2    0    0    1    1.07097109    2.14454607    225    1    1.08889    0.968889;
    147    1    0    0    0    0    1    1.07783429    4.83523677    380    1    1.10526    1;
    148    1    25    3.6    0    0    1    1.03680277    -16.5944686    63    1    1.06349    0.936508;
    149    1    6.3    2.2    0    0    1    1.02441331    -12.9816416    63    1    1.06349    0.936508;
    150    1    17.9    5.1    0    0    1    1.01454521    -14.0796632    90    1    1.06667    0.977778;
    151    1    41.9    5.6    0    0    1    1.02611775    -14.9997904    63    1    1.06349    0.936508;
    152    1    0    0    0    0    1    1.01211903    -23.1600372    63    1    1.06349    0.968254;
    153    1    34.2    5.9    0    7.7    1    1.01207021    -21.8763344    63    1    1.06349    0.968254;
    154    1    20.4    0.6    0    0    1    1.03225001    -12.0973813    63    1    1.06349    0.936508;
    155    1    0    0    0    0    1    1.05637984    -8.58028661    225    1    1.08889    0.933333;
    156    2    0    0    0    0    1    1.06006444    -22.8241156    63    1    1.07937    0.920635;
    157    1    0    0    0    0    1    1.01210105    -23.1618258    63    1    1.06349    0.968254;
    158    1    -0.1    -2.1    0    0    1    0.894021909    -15.4634349    45    1    1    0.888889;
    159    2    0    0    0    0    1    0.942719036    -12.8864625    45    1    1    0.888889;
    160    1    0    0    0    0    1    1.01267136    -17.2728187    63    1    1.06349    0.936508;
    161    1    29.5    2.3    0    0    1    1.07518951    2.41120156    225    1    1.08889    0.888889;
    162    1    31.5    7.4    0    0    1    1.074975    2.40805165    225    1    1.08889    0.888889;
    163    1    0.4    -1.6    0    0    1    1.03121259    -5.72775953    90    1    1.06667    0.977778;
    164    1    0    0    0    0    1    0.999091135    -2.30402632    63    1    1.07937    0.952381;
    165    1    0    0    0    0    1    0.999091135    -2.30402632    63    1    1.07937    0.952381;
    166    1    11.3    -3.9    0    0    1    1.06633386    -9.58964308    20    1    1.15    0.8;
    167    1    5.8    1.4    0    0    1    1.02745607    -13.2857979    90    1    1.06667    0.977778;
    168    1    7.8    -0.9    0    0    1    1.02810338    -13.3498257    90    1    1.06667    0.977778;
    169    1    0    0    0    0    1    1.06631166    -9.58472758    225    1    1.08642    1.00444;
    170    1    9.1    -1.1    0    0    1    1.0391185    -13.5462848    90    1    1.06667    0.977778;
    171    1    60    6.1    0    0    1    1.05280119    -8.40348049    90    1    1.07778    0.977778;
    172    1    21.4    -1.8    0    0    1    1.04464706    -10.0393541    90    1    1.07778    0.977778;
    173    1    0    0    0    0    1    1.07096512    -6.67809768    225    1    1.08889    1.00444;
    174    1    26.6    6.6    0    0    1    1.08721143    0.0329561429    90    1    1.08889    0.933333;
    175    1    35.7    -1.5    0    0    1    1.08796796    -2.22821436    90    1    1.11111    0.955556;
    176    1    0    0    0    0    1    1.04577    -20.3336069    63    1    1.07937    0.920635;
    177    1    0    0    0    0    1    1.04279529    -17.8272361    63    1    1.07937    0.920635;
    178    2    0    0    0    0    1    1.10160289    -18.7590708    150    1    1.1    0.9;
    179    1    0    0    0    0    1    1.0690417    -5.91848404    225    1    1.08889    1.00444;
    180    1    0    0    0    0    1    1.06904192    -5.91848525    225    1    1.08889    1.00444;
    181    1    0    0    0    -32    1    0.99119725    -8.53756409    20    1    1.15    0.8;
    182    1    0    0    0    -32    1    1.02430166    -8.48875303    20    1    1.15    0.8;
    183    1    0    0    0    0    1    1.03160587    -8.40868435    63    1    1.04762    0.952381;
    184    1    0    0    0    -80    1    1.06904042    -5.91847711    225    1    1.08889    1.00444;
    185    1    12.1    -5.9    0    0    1    1.05191392    -20.0378203    63    1    1.07937    0.920635;
    186    1    16    3.1    0    0    1    1.035067    -8.11398975    63    1    1.06349    0.936508;
    187    1    5.4    0.3    0    0    1    1.01320511    -10.2426835    63    1    1.07937    0.952381;
    188    1    3    0.4    0    0    1    1.04388382    -3.69893779    90    1    1.07778    0.977778;
    189    1    21.9    2.4    0    0    1    0.987391007    -7.67127221    63    1    1.07937    0.952381;
    190    1    1.4    -0.7    0    0    1    1.03279505    -4.71023031    90    1    1.06667    0.977778;
    191    2    0    0    0    0    1    1.07478839    -21.670989    63    1    1.07937    0.920635;
    192    1    12.5    1.1    0    0    1    1.05873673    -18.0373692    63    1    1.07937    0.920635;
    193    2    0    0    0    0    1    0.932029654    -14.2141402    45    1    1    0.888889;
    194    1    12.7    -1.3    0    0    1    1.04107718    -13.7984528    90    1    1.06667    0.977778;
    195    1    7.3    -1.4    0    0    1    1.05731467    -19.1154403    63    1    1.07937    0.920635;
    196    1    7.7    5.3    0    0    1    1.06839555    -5.00603738    225    1    1.08889    1.00444;
    197    2    1.4    -3.2    0    0    1    1.071    -20.1440361    63    1    1.07937    0.920635;
    198    1    0    0    0    0    1    1.08949905    -4.92453751    63    1    1.09743    0.952381;
    199    1    0    0    0    0    1    1.08950054    -4.92458009    63    1    1.09743    0.952381;
    200    1    25    -4.9    0    0    1    1.04260633    -23.4345389    63    1    1.07937    0.920635;
...
];

%% generator data
%    bus    Pg    Qg    Qmax    Qmin    Vg    mBase    status    Pmax    Pmin    Pc1    Pc2    Qc1min    Qc1max    Qc2min    Qc2max    ramp_agc    ramp_10    ramp_30    ramp_q    apf
mpc.gen = [
    4    0    0    0    0    1.067    100    0    12    0    0    0    0    0    0    0    0    0    0    0    0;
    4    0    0    0    0    1.067    100    0    10    0    0    0    0    0    0    0    0    0    0    0    0;
    5    0    0    0    0    0.985    100    0    9.1    0    0    0    0    0    0    0    0    0    0    0    0;
    11    0    0    0    0    1.067    100    0    28    0    0    0    0    0    0    0    0    0    0    0    0;
    11    0    0    0    0    1.067    100    0    18    0    0    0    0    0    0    0    0    0    0    0    0;
    17    0    0    0    0    1.055    100    0    8.2    0    0    0    0    0    0    0    0    0    0    0    0;
    19    0    0    0    0    1.03    100    0    1.2    0    0    0    0    0    0    0    0    0    0    0    0;
    22    0    0    0    0    1.004    100    0    10    0    0    0    0    0    0    0    0    0    0    0    0;
    24    0    0    0    0    1.064    100    0    16.1    0    0    0    0    0    0    0    0    0    0    0    0;
    24    0    0    0    0    1.064    100    0    35.5    0    0    0    0    0    0    0    0    0    0    0    0;
    25    0    0    0    0    1.093    100    0    36    0    0    0    0    0    0    0    0    0    0    0    0;
    25    0    0    0    0    1.093    100    0    27.2    0    0    0    0    0    0    0    0    0    0    0    0;
    40    0    0    0    0    1.044    100    0    8    0    0    0    0    0    0    0    0    0    0    0    0;
    47    0    -3.11    9.5    -9.5    0.994    100    0    16    0    0    0    0    0    0    0    0    0    0    0    0;
    47    0    -3.11    9.5    -9.5    0.994    100    0    16    0    0    0    0    0    0    0    0    0    0    0    0;
    48    0    0    0    0    1.052    100    0    23    0    0    0    0    0    0    0    0    0    0    0    0;
    48    0    0    0    0    1.052    100    0    24    0    0    0    0    0    0    0    0    0    0    0    0;
    57    0    1    1    0.9    1.059    100    1    13    0    0    0    0    0    0    0    0    0    0    0    0;
    64    0    0    0    0    1.073    100    0    24    0    0    0    0    0    0    0    0    0    0    0    0;
    64    0    0    0    0    1.073    100    0    27.6    0    0    0    0    0    0    0    0    0    0    0    0;
    69    0.47    0    0    0    1.013    100    1    30.04    0    0    0    0    0    0    0    0    0    0    0    0;
    70    0    0    0    0    1.007    100    0    23    0    0    0    0    0    0    0    0    0    0    0    0;
    85    0    0    0    0    1.044    100    0    6.68    0    0    0    0    0    0    0    0    0    0    0    0;
    86    0    0    0    0    1.018    100    0    9.2    0    0    0    0    0    0    0    0    0    0    0    0;
    102    10.34    -4.82    21    -9    1.02    100    1    46    0    0    0    0    0    0    0    0    0    0    0    0;
    122    0    -0.8    5    -2    1.01    100    0    12    0    0    0    0    0    0    0    0    0    0    0    0;
    124    0    0    0    0    1.05    100    0    9    0    0    0    0    0    0    0    0    0    0    0    0;
    125    5.03    0    0    0    1.027    100    1    26    0    0    0    0    0    0    0    0    0    0    0    0;
    125    0    0    0    0    1.027    100    0    12    0    0    0    0    0    0    0    0    0    0    0    0;
    132    0    0.75    3    -3    1.047    100    0    17    0    0    0    0    0    0    0    0    0    0    0    0;
    132    0    0.75    1    -1    1.047    100    0    4    0    0    0    0    0    0    0    0    0    0    0    0;
    132    0    0.75    3    -3    1.047    100    0    14    0    0    0    0    0    0    0    0    0    0    0    0;
    132    0    0.75    3    -3    1.047    100    0    14    0    0    0    0    0    0    0    0    0    0    0    0;
    137    0    -0.8    0.8    -0.8    1.007    100    0    18    0    0    0    0    0    0    0    0    0    0    0    0;
    137    0    -0.8    0.8    -0.8    1.007    100    0    18    0    0    0    0    0    0    0    0    0    0    0    0;
    156    0    1.5    1.76    -1.76    1.063    100    0    5.3    0    0    0    0    0    0    0    0    0    0    0    0;
    159    0    1.1    10    -13    0.942    100    0    17.9    0    0    0    0    0    0    0    0    0    0    0    0;
    159    0    -1.9    10    -13    0.942    100    0    17.9    0    0    0    0    0    0    0    0    0    0    0    0;
    178    0    -1.31    10    -4    1.1    100    0    30    0    0    0    0    0    0    0    0    0    0    0    0;
    191    0    -0.09    8    -8    1.075    100    0    11    0    0    0    0    0    0    0    0    0    0    0    0;
    191    0    -0.09    2    -2    1.075    100    0    11    0    0    0    0    0    0    0    0    0    0    0    0;
    193    0    -2.64    14    -14    0.922    100    0    30    0    0    0    0    0    0    0    0    0    0    0    0;
    195    0    0    0    0    1.058    100    0    23.5    0    0    0    0    0    0    0    0    0    0    0    0;
    197    0    1    1    0.9    1.071    100    1    15    0    0    0    0    0    0    0    0    0    0    0    0;
    197    0    1    1    0.9    1.071    100    1    15    0    0    0    0    0    0    0    0    0    0    0    0;
    220    0    0    0    0    1.02    100    0    11.94    0    0    0    0    0    0    0    0    0    0    0    0;
    227    0    0    2    0    1.1    100    0    6    0    0    0    0    0    0    0    0    0    0    0    0;
    230    0    0    0    0    0.991    100    0    7.5    0    0    0    0    0    0    0    0    0    0    0    0;
    239    0    0    0    0    1.062    100    0    33.5    0    0    0    0    0    0    0    0    0    0    0    0;
    239    0    0    0    0    1.062    100    0    24.3    0    0    0    0    0    0    0    0    0    0    0    0;
    241    0    0    0    0    1.029    100    0    8    0    0    0    0    0    0    0    0    0    0    0    0;
    241    0    0    0    0    1.029    100    0    36    0    0    0    0    0    0    0    0    0    0    0    0;
    249    0    0    2    0    0.968    100    0    1    0    0    0    0    0    0    0    0    0    0    0    0;
    249    0    -2.59    10    -10    0.968    100    0    31    0    0    0    0    0    0    0    0    0    0    0    0;
    249    0    -2.59    10    -10    0.968    100    0    31    0    0    0    0    0    0    0    0    0    0    0    0;
    249    0    -2.59    10    -10    0.968    100    0    31    0    0    0    0    0    0    0    0    0    0    0    0;
    259    0    3.48    10    -10    1.059    100    0    26    0    0    0    0    0    0    0    0    0    0    0    0;
    259    0    2.51    10    -10    1.059    100    0    26    0    0    0    0    0    0    0    0    0    0    0    0;
    261    0    0    1    0.9    1.057    100    0    30    0    0    0    0    0    0    0    0    0    0    0    0;
    264    0    4    4    -4    1.078    100    0    8    0    0    0    0    0    0    0    0    0    0    0    0;
    272    0    0    0    0    1.03    100    0    12.6    0    0    0    0    0    0    0    0    0    0    0    0;
    285    0    -2.62    6.1    -6.2    0.968    100    0    11.6    0    0    0    0    0    0    0    0    0    0    0    0;
    298    0    0    0    0    1.071    100    0    25.3    0    0    0    0    0    0    0    0    0    0    0    0;
    299    0    0    0    0    1.028    100    0    12    0    0    0    0    0    0    0    0    0    0    0    0;
    308    0    -6.7    9    -9    1.046    100    0    15    0    0    0    0    0    0    0    0    0    0    0    0;
    315    10.1    0    0    0    1.02    100    1    25.8    0    0    0    0    0    0    0    0    0    0    0    0;
    315    26.1    0    0    0    1.02    100    1    49.6    0    0    0    0    0    0    0    0    0    0    0    0;
    320    0    0    0    0    1.059    100    0    0    -7    0    0    0    0    0    0    0    0    0    0    0;
    320    0    0    0    0    1.059    100    0    0    -7    0    0    0    0    0    0    0    0    0    0    0;
    322    0    0.1    0.1    -0.1    1.056    100    0    10.8    0    0    0    0    0    0    0    0    0    0    0    0;
    328    0    -0.23    4    -4    1.036    100    0    11    0    0    0    0    0    0    0    0    0    0    0    0;
    335    0    2.42    13    -9    1.036    100    0    25    0    0    0    0    0    0    0    0    0    0    0    0;
    336    0    4.48    13    -9    1.04    100    0    25    0    0    0    0    0    0    0    0    0    0    0    0;
    339    0    2.68    5    -6    1.022    100    0    13    0    0    0    0    0    0    0    0    0    0    0    0;
    341    0    1.05    10    -10    1.079    100    0    21    0    0    0    0    0    0    0    0    0    0    0    0;
    341    0    0.1    0.1    -0.1    1.079    100    0    2    0    0    0    0    0    0    0    0    0    0    0    0;
    348    0    0    0    0    1.056    100    0    2.3    0    0    0    0    0    0    0    0    0    0    0    0;
    348    2.13    0    0    0    1.056    100    1    19.5    0    0    0    0    0    0    0    0    0    0    0    0;
    351    0    0    0    0    1.081    100    0    22    0    0    0    0    0    0    0    0    0    0    0    0;
    359    0    9.21    30    -30    1.035    100    0    30    0    0    0    0    0    0    0    0    0    0    0    0;
    360    0    0    0    0    0.988    100    0    12    0    0    0    0    0    0    0    0    0    0    0    0;
    360    0    0    0    0    0.988    100    0    12    0    0    0    0    0    0    0    0    0    0    0    0;
    367    119.17    17.39    59    -26    1.072    100    1    130    0    0    0    0    0    0    0    0    0    0    0    0;
    394    0    0    0    0    1.031    100    0    2.7    0    0    0    0    0    0    0    0    0    0    0    0;
    413    0    0    0    0    1.03    100    0    10    0    0    0    0    0    0    0    0    0    0    0    0;
    413    0    0    0    0    1.03    100    0    11.5    0    0    0    0    0    0    0    0    0    0    0    0;
    433    0    0    0    0    1.058    100    0    12    0    0    0    0    0    0    0    0    0    0    0    0;
    442    0    5.39    10.96    -11.99    1.065    100    0    34.25    0    0    0    0    0    0    0    0    0    0    0    0;
    449    0    -0.57    8    -9    0.994    100    0    25    0    0    0    0    0    0    0    0    0    0    0    0;
    465    0    0    0    0    0.992    100    0    2.4    0    0    0    0    0    0    0    0    0    0    0    0;
    465    0    0    0    0    0.992    100    0    16    0    0    0    0    0    0    0    0    0    0    0    0;
    467    1    -2.26    6    -3    1.17    100    1    27    1    0    0    0    0    0    0    0    0    0    0    0;
    467    1    -2.26    6    -3    1.17    100    1    27    1    0    0    0    0    0    0    0    0    0    0    0;
    469    28.37    19    19    -10    1.029    100    1    48    1    0    0    0    0    0    0    0    0    0    0    0;
    473    0    -3.72    6    -6    1.02    100    0    10    0    0    0    0    0    0    0    0    0    0    0    0;
    473    0    -5.4    5.4    -5.4    1.02    100    0    9    0    0    0    0    0    0    0    0    0    0    0    0;
    482    0    -2.21    17    -16    0.975    100    0    27    0    0    0    0    0    0    0    0    0    0    0    0;
    482    0    -2.21    17    -16    0.975    100    0    27    0    0    0    0    0    0    0    0    0    0    0    0;
    482    0    -2.21    17    -16    0.975    100    0    27    0    0    0    0    0    0    0    0    0    0    0    0;
    494    0    0.09    8    -17    1.049    100    0    23.4    0    0    0    0    0    0    0    0    0    0    0    0;
    511    0    1.56    2    -2    1.008    100    0    4    0    0    0    0    0    0    0    0    0    0    0    0;
    520    0    0    0    0    1.03    100    0    10    0    0    0    0    0    0    0    0    0    0    0    0;
    521    0    0    0    0    1.04    100    0    12    0    0    0    0    0    0    0    0    0    0    0    0;
    531    0    -1.49    4.8    -4.8    1.001    100    0    8    0    0    0    0    0    0    0    0    0    0    0    0;
    531    0    -1.49    4.8    -4.8    1.001    100    0    8    0    0    0    0    0    0    0    0    0    0    0    0;
    531    0    -1.49    4.8    -4.8    1.001    100    0    8    0    0    0    0    0    0    0    0    0    0    0    0;
    537    0    0    0    0    1.026    100    0    12    0    0    0    0    0    0    0    0    0    0    0    0;
    537    0.02    0    0    0    1.026    100    1    24    0    0    0    0    0    0    0    0    0    0    0    0;
    546    0    2    2    1.9    1.066    100    1    9    0    0    0    0    0    0    0    0    0    0    0    0;
    549    0    2    2    0    1.057    100    0    12    0    0    0    0    0    0    0    0    0    0    0    0;
    571    0    0    0    0    0.985    100    0    12    0    0    0    0    0    0    0    0    0    0    0    0;
    571    3.94    0    0    0    0.985    100    1    30    0    0    0    0    0    0    0    0    0    0    0    0;
    571    0    0    0    0    0.985    100    0    11.5    0    0    0    0    0    0    0    0    0    0    0    0;
    584    0.27    7    7    -4    1.035    100    1    16    0    0    0    0    0    0    0    0    0    0    0    0;
    586    0    0    0    0    0.981    100    0    9    0    0    0    0    0    0    0    0    0    0    0    0;
    587    0    -4.04    5.7    -5.7    0.997    100    0    9.5    0    0    0    0    0    0    0    0    0    0    0    0;
    590    0    0.1    0.1    -0.1    1.037    100    0    1    0    0    0    0    0    0    0    0    0    0    0    0;
    594    0    2.85    10    -10    1.045    100    0    21    0    0    0    0    0    0    0    0    0    0    0    0;
    601    0    1    1    -1    1.034    100    0    6.1    0    0    0    0    0    0    0    0    0    0    0    0;
    611    32.39    -6.79    45    -45    1.022    100    1    45    0    0    0    0    0    0    0    0    0    0    0    0;
    611    0    -1.37    45    -45    1.022    100    0    45    0    0    0    0    0    0    0    0    0    0    0    0;
    613    0    0    0    0    1.017    100    0    12    0    0    0    0    0    0    0    0    0    0    0    0;
    613    0    0    0    0    1.017    100    0    12    0    0    0    0    0    0    0    0    0    0    0    0;
    613    0    0    0    0    1.017    100    0    12    0    0    0    0    0    0    0    0    0    0    0    0;
    614    0    0    0    0    1.03    100    0    35    0    0    0    0    0    0    0    0    0    0    0    0;
    614    0    0    0    0    1.03    100    0    11.5    0    0    0    0    0    0    0    0    0    0    0    0;
    626    0    -8.3    8.3    -8.3    1.03    100    0    8.3    -8.3    0    0    0    0    0    0    0    0    0    0    0;
    635    0    -6    4    -6    1.031    100    0    7.3    0    0    0    0    0    0    0    0    0    0    0    0;
    638    0    1.83    7    0    1.013    100    0    15    0    0    0    0    0    0    0    0    0    0    0    0;
    638    0    5.83    7    0    1.013    100    0    15    0    0    0    0    0    0    0    0    0    0    0    0;
    653    0    0    7    0    1.058    100    0    7    0    0    0    0    0    0    0    0    0    0    0    0;
    671    0    0    0    0    1.048    100    0    12    0    0    0    0    0    0    0    0    0    0    0    0;
    671    0    0    0    0    1.048    100    0    12    0    0    0    0    0    0    0    0    0    0    0    0;
    672    0    0    0    0    1.049    100    0    7.5    0    0    0    0    0    0    0    0    0    0    0    0;
    672    0.19    0    0    0    1.049    100    1    24    0    0    0    0    0    0    0    0    0    0    0    0;
    680    0    0    0    0    1.002    100    0    6.6    0    0    0    0    0    0    0    0    0    0    0    0;
    681    0    0    0    0    1.071    100    0    12    0    0    0    0    0    0    0    0    0    0    0    0;
    685    0    -0.6    6    -5    0.89    100    0    9    0    0    0    0    0    0    0    0    0    0    0    0;
    685    0    -0.6    6    -5    0.89    100    0    9    0    0    0    0    0    0    0    0    0    0    0    0;
    685    0    -0.6    8    -5    0.89    100    0    11    0    0    0    0    0    0    0    0    0    0    0    0;
    685    0    -0.6    8    -5    0.89    100    0    11    0    0    0    0    0    0    0    0    0    0    0    0;
    696    3.2    0    0    0    1.067    100    1    32.35    0    0    0    0    0    0    0    0    0    0    0    0;
    696    0    0    0    0    1.067    100    0    12    0    0    0    0    0    0    0    0    0    0    0    0;
    696    0    0    0    0    1.067    100    0    21    0    0    0    0    0    0    0    0    0    0    0    0;
    700    23.44    -9.8    15    -17    1    100    1    37    0    0    0    0    0    0    0    0    0    0    0    0;
    700    22.45    -9.8    15    -17    1    100    1    37    0    0    0    0    0    0    0    0    0    0    0    0;
    699    24.59    -9.82    15    -15    1    100    1    37    0    0    0    0    0    0    0    0    0    0    0    0;
    699    24.59    -9.82    15    -15    1    100    1    37    0    0    0    0    0    0    0    0    0    0    0    0;
    698    23.58    -7.25    15    -17    1.004    100    1    37    0    0    0    0    0    0    0    0    0    0    0    0;
    698    23.58    -7.25    15    -17    1.004    100    1    37    0    0    0    0    0    0    0    0    0    0    0    0;
    706    0    0.69    2    -2    0.891    100    0    4    0    0    0    0    0    0    0    0    0    0    0    0;
    706    0    1.19    2.5    -2.5    0.891    100    0    4    0    0    0    0    0    0    0    0    0    0    0    0;
    706    0    1.6    3    -3    0.891    100    0    5.7    0    0    0    0    0    0    0    0    0    0    0    0;
    706    0    -1.31    6    -5    0.891    100    0    8.5    0    0    0    0    0    0    0    0    0    0    0    0;
    733    8.96    0    0    0    1.023    100    1    19.5    0    0    0    0    0    0    0    0    0    0    0    0;
    734    20.39    -9.21    18    -18    0.939    100    1    39    0    0    0    0    0    0    0    0    0    0    0    0;
    735    0    0    0    0    1.002    100    0    11.5    0    0    0    0    0    0    0    0    0    0    0    0;
    735    3    0    0    0    1.002    100    1    32    0    0    0    0    0    0    0    0    0    0    0    0;
    737    0    0    0    0    1.064    100    0    12    0    0    0    0    0    0    0    0    0    0    0    0;
    737    0    0    0    0    1.064    100    0    32    0    0    0    0    0    0    0    0    0    0    0    0;
    738    0    0.1    0.1    -0.1    1.049    100    0    5    0    0    0    0    0    0    0    0    0    0    0    0;
    745    0    -2.25    4.4    -3.7    0.946    100    0    6.7    0    0    0    0    0    0    0    0    0    0    0    0;
    745    0    -1.65    5    -3    0.946    100    0    5.6    0    0    0    0    0    0    0    0    0    0    0    0;
    746    8.27    -16.55    15    -16.55    0.938    100    1    26.6    0    0    0    0    0    0    0    0    0    0    0    0;
    747    1    2    2    -2    1.009    100    1    7    1    0    0    0    0    0    0    0    0    0    0    0;
    752    0    -2.63    3    -3    0.967    100    0    5    -5    0    0    0    0    0    0    0    0    0    0    0;
    759    0    5.35    8    -8    1.072    100    0    23.5    0    0    0    0    0    0    0    0    0    0    0    0;
    761    0    0    0    0    1.036    100    0    6    0    0    0    0    0    0    0    0    0    0    0    0;
    762    0    0    0    0    1.034    100    0    6    0    0    0    0    0    0    0    0    0    0    0    0;
    761    7.58    -6    10    -6    1.036    100    1    37.5    0    0    0    0    0    0    0    0    0    0    0    0;
    762    6.25    -2.88    10    -6    1.034    100    1    37.5    0    0    0    0    0    0    0    0    0    0    0    0;
    763    0    0.06    0.06    -0.06    0.601    100    0    0.6    0    0    0    0    0    0    0    0    0    0    0    0;
    763    0    2.61    2.61    -2.61    0.601    100    0    26.1    0    0    0    0    0    0    0    0    0    0    0    0;
    763    0    0.16    0.16    -0.16    0.601    100    0    1.6    0    0    0    0    0    0    0    0    0    0    0    0;
    763    0    0.11    0.11    -0.11    0.601    100    0    1.1    0    0    0    0    0    0    0    0    0    0    0    0;
    767    0    0    0    0    1.018    100    0    37.5    0    0    0    0    0    0    0    0    0    0    0    0;
    767    0    0    0    0    1.018    100    0    34    0    0    0    0    0    0    0    0    0    0    0    0;
    787    0    -3.75    26    -26    0.943    100    0    8    0    0    0    0    0    0    0    0    0    0    0    0;
    787    0    -3.75    26    -26    0.943    100    0    15    0    0    0    0    0    0    0    0    0    0    0    0;
    788    0    -3.4    26    -26    0.97    100    0    19    0    0    0    0    0    0    0    0    0    0    0    0;
    802    17.39    -9.68    15    -17    1.001    100    1    31    0    0    0    0    0    0    0    0    0    0    0    0;
    802    19.35    -9.68    15    -17    1.001    100    1    31    0    0    0    0    0    0    0    0    0    0    0    0;
    803    19.95    -8.95    15    -17    1.003    100    1    31    0    0    0    0    0    0    0    0    0    0    0    0;
    803    19.28    -8.95    15    -17    1.003    100    1    31    0    0    0    0    0    0    0    0    0    0    0    0;
    804    19.11    -9.46    15    -17    1.003    100    1    31    0    0    0    0    0    0    0    0    0    0    0    0;
    804    19.11    -9.46    15    -17    1.003    100    1    31    0    0    0    0    0    0    0    0    0    0    0    0;
    808    0    0    0    0    1.042    100    0    40.8    0    0    0    0    0    0    0    0    0    0    0    0;
    816    14.78    -0.03    6    -9    1.021    100    1    32    1    0    0    0    0    0    0    0    0    0    0    0;
    816    0    0    6    -9    1.021    100    0    32    1    0    0    0    0    0    0    0    0    0    0    0;
    817    15.98    0.16    6    -9    1.02    100    1    32    1    0    0    0    0    0    0    0    0    0    0    0;
    817    15.98    0.16    6    -9    1.02    100    1    32    1    0    0    0    0    0    0    0    0    0    0    0;
    817    12.97    0.16    6    -9    1.02    100    1    32    1    0    0    0    0    0    0    0    0    0    0    0;
    817    14.98    0.16    6    -9    1.02    100    1    32    1    0    0    0    0    0    0    0    0    0    0    0;
    827    0    0.38    3    -3    1.058    100    0    13    0    0    0    0    0    0    0    0    0    0    0    0;
    827    0    3    3    -3    1.058    100    0    7    0    0    0    0    0    0    0    0    0    0    0    0;
    830    0    0    0    0    1.079    100    0    2.4    0    0    0    0    0    0    0    0    0    0    0    0;
    831    0    1.43    10    -10    1.068    100    0    27    0    0    0    0    0    0    0    0    0    0    0    0;
    832    0    -2.73    10    -10    0.937    100    0    20    0    0    0    0    0    0    0    0    0    0    0    0;
    834    0    -0.51    3.14    -3.43    1.063    100    0    9.8    0    0    0    0    0    0    0    0    0    0    0    0;
    834    0    0    1    0    1.063    100    0    5    0    0    0    0    0    0    0    0    0    0    0    0;
...
];

%% branch data
%    fbus    tbus    r    x    b    rateA    rateB    rateC    ratio    angle    status    angmin    angmax
mpc.branch = [
    4667    1    0.005726    0.010482    0    0    0    0    1    0    1    0    0;
    5273    1    0.01284    0.025679    0    0    0    0    1    0    1    0    0;
    1689    2    0.005799    0.010615    0.0075    0    0    0    1    0    1    0    0;
    1680    3    0.134039    0.309398    0.0035    0    0    0    1    0    1    0    0;
    2311    3    0.049131    0.133283    0.0015    0    0    0    1    0    1    0    0;
    696    4    0.025926    0.109136    0.0002    0    0    0    1    0    1    0    0;
    3961    4    0.05    0.126914    0.0006    0    0    0    1    0    1    0    0;
    5073    4    0.02321    0.097407    0.0016    0    0    0    1    0    1    0    0;
    4437    5    0.040564    0.113631    0.0013    0    0    0    1    0    1    0    0;
    2789    6    0.006047    0.020912    0.0222    0    0    0    1    0    1    0    0;
    2790    7    0.012472    0.032099    0.0061    0    0    0    1    0    1    0    0;
    2477    8    0.002607    0.017462    0.0324    540    540    540    1    0    1    0    0;
    473    9    0.053893    0.14258    0.0017    0    0    0    1    0    1    0    0;
    11    10    0.000247    0.001235    0.0005    0    0    0    1    0    1    0    0;
    11    10    0.000247    0.001235    0.0002    0    0    0    1    0    1    0    0;
    30    11    0.039753    0.100988    0.0047    0    0    0    1    0    1    0    0;
    2945    11    0.037654    0.096173    0.001    0    0    0    1    0    1    0    0;
    2189    12    0.014613    0.060721    0.0008    0    0    0    1    0    1    0    0;
    4039    12    0.034064    0.121139    0.0015    0    0    0    1    0    1    0    0;
    4041    12    0.000242    0.000442    0.0004    0    0    0    1    0    1    0    0;
    115    13    2.1e-05    0.000125    0.1386    737    737    737    1    0    1    0    0;
    2345    13    0.000145    0.001877    0.0635    2487    2487    2487    1    0    1    0    0;
    4597    13    0.000319    0.003234    0.0838    1841    1841    1841    1    0    1    0    0;
    116    13    2.1e-05    0.000125    0.1386    737    737    737    1    0    1    0    0;
    1229    14    0.04    0.134198    0.0274    0    0    0    1    0    1    0    0;
    2887    14    0.012222    0.052346    0.0026    0    0    0    1    0    1    0    0;
    4615    14    0.007284    0.045432    0.0024    0    0    0    1    0    1    0    0;
    4976    14    0.059963    0.154222    0.0236    0    0    0    1    0    1    0    0;
    5259    14    0.018025    0.110988    0.0073    0    0    0    1    0    1    0    0;
    2887    14    0.012222    0.052593    0.0032    0    0    0    1    0    1    0    0;
    4615    14    0.007284    0.044938    0.0024    0    0    0    1    0    1    0    0;
    2921    15    0.037541    0.100529    0.0011    0    0    0    1    0    1    0    0;
    4150    15    0.090199    0.211388    0.0023    0    0    0    1    0    1    0    0;
    4477    15    0.09801    0.267574    0    0    0    0    1    0    1    0    0;
    252    16    0.071806    0.191484    0.0019    0    0    0    1    0    1    0    0;
    340    16    0.119174    0.284958    0.0044    0    0    0    1    0    1    0    0;
    5865    17    0.022346    0.061111    0.0029    0    0    0    1    0    1    0    0;
    3747    18    0.009383    0.019753    0    0    0    0    1    0    1    0    0;
    5121    19    0.000252    0.000504    0    0    0    0    1    0    1    0    0;
    3747    20    0.001975    0.004444    0    0    0    0    1    0    1    0    0;
    1359    21    0.036296    0.099012    0.0045    0    0    0    1    0    1    0    0;
    1605    21    0.032716    0.089136    0.0057    0    0    0    1    0    1    0    0;
    1849    22    0.138574    0.351474    0.0058    0    0    0    1    0    1    0    0;
    5050    22    0.094407    0.210456    0.0044    0    0    0    1    0    1    0    0;
    1161    23    0.047115    0.117158    0.001    0    0    0    1    0    1    0    0;
    2713    23    0.039557    0.120937    0.0132    0    0    0    1    0    1    0    0;
    3443    23    0.022676    0.062484    0.0007    0    0    0    1    0    1    0    0;
    145    24    0.064568    0.16716    0.0113    0    0    0    1    0    1    0    0;
    1287    24    0.048605    0.128481    0.0062    0    0    0    1    0    1    0    0;
    493    25    0.004815    0.02963    0.0016    0    0    0    1    0    1    0    0;
    2101    25    0.007309    0.04463    0.0073    0    0    0    1    0    1    0    0;
    613    26    0.034321    0.145802    0.0073    0    0    0    1    0    1    0    0;
    1872    26    0.004815    0.009753    0.0005    0    0    0    1    0    1    0    0;
    2613    26    0.049012    0.133704    0.0063    0    0    0    1    0    1    0    0;
    2938    26    0.04642    0.126543    0.0058    0    0    0    1    0    1    0    0;
    3357    26    0.046296    0.125926    0.006    0    0    0    1    0    1    0    0;
    4652    26    0.053704    0.136753    0.0065    0    0    0    1    0    1    0    0;
    2938    26    0.03358    0.120988    0.0062    0    0    0    1    0    1    0    0;
    536    27    0.006163    0.041067    0.0759    446    446    446    1    0    1    0    0;
    2358    27    0.000652    0.004369    0.0081    558    558    558    1    0    1    0    0;
    2694    28    0.050945    0.131922    0.0015    0    0    0    1    0    1    0    0;
    3913    28    0.058781    0.149005    0.0017    0    0    0    1    0    1    0    0;
    2900    29    0.067019    0.137566    0.0037    0    0    0    1    0    1    0    0;
    3339    29    0.032754    0.088939    0.0039    0    0    0    1    0    1    0    0;
    3339    29    0.030184    0.080096    0.0053    0    0    0    1    0    1    0    0;
    145    30    0.066049    0.187778    0.0099    0    0    0    1    0    1    0    0;
    1559    30    0.065062    0.133704    0.0062    0    0    0    1    0    1    0    0;
    4861    30    0.041728    0.106049    0.005    0    0    0    1    0    1    0    0;
    151    31    0.009574    0.03875    0.0114    0    0    0    1    0    1    0    0;
    3180    31    0.000171    0.000313    0.0002    0    0    0    1    0    1    0    0;
    3712    31    0.034266    0.09423    0.001    0    0    0    1    0    1    0    0;
    4763    31    0.006803    0.028219    0    0    0    0    1    0    1    0    0;
    151    31    0.008566    0.037541    0.0121    0    0    0    1    0    1    0    0;
    3749    32    0.009733    0.034089    0.0185    0    0    0    1    0    1    0    0;
    369    34    0.000277    0.002015    0.003    0    0    0    1    0    1    0    0;
    1020    33    0.00881    0.033995    0.0607    0    0    0    1    0    1    0    0;
    1162    33    0.004642    0.019832    0.0354    0    0    0    1    0    1    0    0;
    2591    34    0.008861    0.03506    0.0623    0    0    0    1    0    1    0    0;
    2714    34    0.006993    0.032869    0.0557    0    0    0    1    0    1    0    0;
    4768    33    0.002173    0.008731    0.0152    0    0    0    1    0    1    0    0;
    4878    34    0.00077    0.003121    0.0051    0    0    0    1    0    1    0    0;
    5700    33    0.004109    0.016138    0.0284    0    0    0    1    0    1    0    0;
    371    35    8.3e-05    0.000907    0.0202    1034    1034    1034    1    0    1    0    0;
    1114    35    0.000552    0.006726    0.0939    1786    1786    1786    1    0    1    0    0;
    2158    35    0.000512    0.008012    0.2455    2462    2462    2462    1    0    1    0    0;
    3153    35    0.001107    0.00918    0.1906    1644    1644    1644    1    0    1    0    0;
    370    36    6.2e-05    0.000741    0.0173    1095    1095    1095    1    0    1    0    0;
    2158    35    0.000512    0.008019    0.2455    2462    2462    2462    1    0    1    0    0;
    2158    36    0.001153    0.013123    0.1841    1433    1433    1433    1    0    1    0    0;
    5258    37    0.055933    0.120685    0.0013    0    0    0    1    0    1    0    0;
    5544    37    0.039053    0.084404    0.001    0    0    0    1    0    1    0    0;
    726    38    0.00252    0.006551    0.0001    0    0    0    1    0    1    0    0;
    1233    39    0.009877    0.042222    0.0021    0    0    0    1    0    1    0    0;
    5839    39    0.024815    0.063086    0.0029    0    0    0    1    0    1    0    0;
    1233    39    0.009877    0.042222    0.0021    0    0    0    1    0    1    0    0;
    2259    40    0.056173    0.142593    0.0066    0    0    0    1    0    1    0    0;
    4615    40    0.034444    0.109012    0.0076    0    0    0    1    0    1    0    0;
    432    41    0.000158    0.000672    0.0719    0    0    0    1    0    1    0    0;
    3975    41    4.5e-05    8.9e-05    0.002    0    0    0    1    0    1    0    0;
    1488    42    0.01096    0.020063    0.009    0    0    0    1    0    1    0    0;
    2775    42    0.002268    0.008818    0.0099    0    0    0    1    0    1    0    0;
    2734    43    0.001481    0.006296    0.0039    0    0    0    1    0    1    0    0;
    3506    44    0.050617    0.137012    0.009    0    0    0    1    0    1    0    0;
    4347    44    0.074326    0.194507    0.0021    0    0    0    1    0    1    0    0;
    5124    45    0.000247    0.000741    0    0    0    0    1    0    1    0    0;
    1089    46    0.049131    0.134039    0.001    0    0    0    1    0    1    0    0;
    2202    46    0.033258    0.090955    0.001    0    0    0    1    0    1    0    0;
    3323    46    0.067437    0.123442    0.001    0    0    0    1    0    1    0    0;
    1089    47    0.037289    0.118166    0.001    0    0    0    1    0    1    0    0;
    5392    48    0.021358    0.057037    0.0005    0    0    0    1    0    1    0    0;
    1227    49    0.071303    0.180902    0.0021    0    0    0    1    0    1    0    0;
    2353    49    0.071554    0.18191    0.0021    0    0    0    1    0    1    0    0;
    473    50    0.028193    0.104535    0.0013    0    0    0    1    0    1    0    0;
    1683    50    0.055404    0.171429    0.01    0    0    0    1    0    1    0    0;
    3572    50    0.010834    0.071554    0.001    0    0    0    1    0    1    0    0;
    4649    50    0.013857    0.030234    0.0003    0    0    0    1    0    1    0    0;
    3572    50    0.011414    0.070648    0.0009    0    0    0    1    0    1    0    0;
    4649    50    0.013757    0.030108    0.0003    0    0    0    1    0    1    0    0;
    1200    51    0.00478    0.028622    0.0547    455    455    455    1    0    1    0    0;
    1201    51    0.00478    0.028583    0.0547    455    455    455    1    0    1    0    0;
    167    52    0.01284    0.032716    0.0015    0    0    0    1    0    1    0    0;
    5518    52    0.014198    0.036049    0.0016    0    0    0    1    0    1    0    0;
    3367    53    0.005291    0.021668    0.0003    0    0    0    1    0    1    0    0;
    2779    54    0.01358    0.047654    0.0023    0    0    0    1    0    1    0    0;
    376    55    0.000257    0.000514    0.0294    0    0    0    1    0    1    0    0;
    2703    56    0.000257    0.002153    0.2147    452    452    452    1    0    1    0    0;
    3445    56    0.000277    0.000869    0.0931    481    481    481    1    0    1    0    0;
    5125    57    0.000756    0.00252    0    0    0    0    1    0    1    0    0;
    3408    58    0.000237    0.00083    0.1863    0    0    0    1    0    1    0    0;
    3584    58    0.000178    0.000612    0.1377    0    0    0    1    0    1    0    0;
    142    59    0.030486    0.076342    0.002    0    0    0    1    0    1    0    0;
    1659    59    0.011086    0.024691    0.0015    0    0    0    1    0    1    0    0;
    2487    60    0.044344    0.170572    0.0021    0    0    0    1    0    1    0    0;
    3544    60    0.036709    0.151776    0.0017    0    0    0    1    0    1    0    0;
    2236    61    0.017788    0.048551    0.0006    0    0    0    1    0    1    0    0;
    2645    61    0.057521    0.145251    0.0017    0    0    0    1    0    1    0    0;
    2054    62    0.014109    0.057949    0.0029    0    0    0    1    0    1    0    0;
    2966    62    0.007055    0.02973    0.0014    0    0    0    1    0    1    0    0;
    374    63    0.024263    0.065911    0.0007    0    0    0    1    0    1    0    0;
    3100    63    0.020912    0.059209    0.0016    0    0    0    1    0    1    0    0;
    146    64    0.002568    0.011753    0.0203    424    424    424    1    0    1    0    0;
    5135    64    0.002568    0.011615    0.0228    0    0    0    1    0    1    0    0;
    4627    65    0.006299    0.033585    0.0599    0    0    0    1    0    1    0    0;
    4627    65    0.006299    0.033661    0.06    0    0    0    1    0    1    0    0;
    1552    66    0.102293    0.226757    0.0025    0    0    0    1    0    1    0    0;
    2300    66    0.177551    0.405291    0.0046    0    0    0    1    0    1    0    0;
    3267    66    0.088264    0.161566    0.0017    0    0    0    1    0    1    0    0;
...